benzene
  PyMOL2.5          3D                             0

 12 12  0  0  0  0  0  0  0  0999 V2000
    1.4045   -0.0000    0.0000 C   0  0  0  0  0  0  0  0  0  0  0  0
    0.7022    1.2164    0.0000 C   0  0  0  0  0  0  0  0  0  0  0  0
   -0.7023    1.2164    0.0000 C   0  0  0  0  0  0  0  0  0  0  0  0
   -1.4045   -0.0000    0.0000 C   0  0  0  0  0  0  0  0  0  0  0  0
   -0.7023   -1.2164    0.0000 C   0  0  0  0  0  0  0  0  0  0  0  0
    0.7023   -1.2164    0.0000 C   0  0  0  0  0  0  0  0  0  0  0  0
    2.5079   -0.0000    0.0000 H   0  0  0  0  0  0  0  0  0  0  0  0
    1.2540    2.1720    0.0000 H   0  0  0  0  0  0  0  0  0  0  0  0
   -1.2540    2.1720    0.0000 H   0  0  0  0  0  0  0  0  0  0  0  0
   -2.5079   -0.0000    0.0000 H   0  0  0  0  0  0  0  0  0  0  0  0
   -1.2540   -2.1719    0.0000 H   0  0  0  0  0  0  0  0  0  0  0  0
    1.2540   -2.1720    0.0000 H   0  0  0  0  0  0  0  0  0  0  0  0
  1  2  2  0  0  0  0
  1  6  1  0  0  0  0
  1  7  1  0  0  0  0
  2  3  1  0  0  0  0
  2  8  1  0  0  0  0
  3  4  2  0  0  0  0
  3  9  1  0  0  0  0
  4  5  1  0  0  0  0
  4 10  1  0  0  0  0
  5  6  2  0  0  0  0
  5 11  1  0  0  0  0
  6 12  1  0  0  0  0
M  END
$$$$
pyridine
  PyMOL2.5          3D                             0

 11 11  0  0  0  0  0  0  0  0999 V2000
    1.4045   -0.0000    0.0000 C   0  0  0  0  0  0  0  0  0  0  0  0
   -0.7023    1.2164    0.0000 C   0  0  0  0  0  0  0  0  0  0  0  0
   -1.4045   -0.0000    0.0000 C   0  0  0  0  0  0  0  0  0  0  0  0
   -0.7023   -1.2164    0.0000 C   0  0  0  0  0  0  0  0  0  0  0  0
    0.7023   -1.2164    0.0000 C   0  0  0  0  0  0  0  0  0  0  0  0
    2.4940   -0.0325    0.0000 H   0  0  0  0  0  0  0  0  0  0  0  0
    1.2473   -2.1604    0.0000 H   0  0  0  0  0  0  0  0  0  0  0  0
   -1.2473   -2.1604    0.0000 H   0  0  0  0  0  0  0  0  0  0  0  0
   -2.4945   -0.0000    0.0000 H   0  0  0  0  0  0  0  0  0  0  0  0
   -1.2753    2.1437    0.0000 H   0  0  0  0  0  0  0  0  0  0  0  0
    0.7525    1.3034    0.0000 N   0  0  0  0  0  0  0  0  0  0  0  0
  1  5  1  0  0  0  0
  1  6  1  0  0  0  0
  1 11  2  0  0  0  0
  2  3  2  0  0  0  0
  2 10  1  0  0  0  0
  3  4  1  0  0  0  0
  3  9  1  0  0  0  0
  4  5  2  0  0  0  0
  4  8  1  0  0  0  0
  5  7  1  0  0  0  0
  2 11  1  0  0  0  0
M  END
$$$$
